
**** 12/24/20 18:07:17 ******* PSpice Lite (March 2016) ******* ID# 10813 ****

 ** Profile: "SCHEMATIC1-sim"  [ D:\Lab_po_OTK\Lab_Rab_6\lab_reab_6-pspicefiles\schematic1\sim.sim ] 


 ****     CIRCUIT DESCRIPTION


******************************************************************************




** Creating circuit file "sim.cir" 
** WARNING: THIS AUTOMATICALLY GENERATED FILE MAY BE OVERWRITTEN BY SUBSEQUENT SIMULATIONS

*Libraries: 
* Profile Libraries :
* Local Libraries :
* From [PSPICE NETLIST] section of C:\SPB_Data\cdssetup\OrCAD_PSpice\17.2.0\PSpice.ini file:
.lib "nomd.lib" 

*Analysis directives: 
.AC DEC 100 10k 2Meg
.OPTIONS ADVCONV
.PROBE64 V(alias(*)) I(alias(*)) W(alias(*)) D(alias(*)) NOISE(alias(*)) 
.INC "..\SCHEMATIC1.net" 



**** INCLUDING SCHEMATIC1.net ****
* source LAB_REAB_6
L_L3         N15497 0  1000uH  
V_V1         N15486 0  AC 1
+SIN 0 5 50k 0 0 0
R_R2         0 N15493  10k TC=0,0 
R_R7         0 N15497  1k TC=0,0 
R_R8         N15497 N15493  1k TC=0,0 
R_R9         N15493 N15486  1k TC=0,0 
V_V2         N17878 0  AC 1
+SIN 0 5 50k 0 0 0
R_R13         0 N17888  10k TC=0,0 
R_R10         N17888 N17878  1k TC=0,0 
R_R11         N17922 N17888  1k TC=0,0 
R_R12         0 N17922  1k TC=0,0 

**** RESUMING sim.cir ****
.END

**** 12/24/20 18:07:17 ******* PSpice Lite (March 2016) ******* ID# 10813 ****

 ** Profile: "SCHEMATIC1-sim"  [ D:\Lab_po_OTK\Lab_Rab_6\lab_reab_6-pspicefiles\schematic1\sim.sim ] 


 ****     SMALL SIGNAL BIAS SOLUTION       TEMPERATURE =   27.000 DEG C


******************************************************************************



 NODE   VOLTAGE     NODE   VOLTAGE     NODE   VOLTAGE     NODE   VOLTAGE


(N15486)    0.0000 (N15493)    0.0000 (N15497)    0.0000 (N17878)    0.0000     

(N17888)    0.0000 (N17922)    0.0000 




    VOLTAGE SOURCE CURRENTS
    NAME         CURRENT

    V_V1         0.000E+00
    V_V2         0.000E+00

    TOTAL POWER DISSIPATION   0.00E+00  WATTS



          JOB CONCLUDED

**** 12/24/20 18:07:17 ******* PSpice Lite (March 2016) ******* ID# 10813 ****

 ** Profile: "SCHEMATIC1-sim"  [ D:\Lab_po_OTK\Lab_Rab_6\lab_reab_6-pspicefiles\schematic1\sim.sim ] 


 ****     JOB STATISTICS SUMMARY


******************************************************************************



  Total job time (using Solver 1)   =         .05
