
**** 12/22/20 17:23:49 ******* PSpice Lite (March 2016) ******* ID# 10813 ****

 ** Profile: "SCHEMATIC1-sim"  [ D:\Ebanue_labu_po_otk\Lab_Rab_6\Lab_Reab_6-PSpiceFiles\SCHEMATIC1\sim.sim ] 


 ****     CIRCUIT DESCRIPTION


******************************************************************************




** Creating circuit file "sim.cir" 
** WARNING: THIS AUTOMATICALLY GENERATED FILE MAY BE OVERWRITTEN BY SUBSEQUENT SIMULATIONS

*Libraries: 
* Profile Libraries :
* Local Libraries :
* From [PSPICE NETLIST] section of C:\SPB_Data\cdssetup\OrCAD_PSpice\17.2.0\PSpice.ini file:
.lib "nomd.lib" 

*Analysis directives: 
.AC DEC 100 1k 7M
---------------$
ERROR(ORPSIM-16103): Invalid value
.OPTIONS ADVCONV
.PROBE64 V(alias(*)) I(alias(*)) W(alias(*)) D(alias(*)) NOISE(alias(*)) 
.INC "..\SCHEMATIC1.net" 



**** INCLUDING SCHEMATIC1.net ****
* source LAB_REAB_6
L_L3         N15497 0  1000uH  
V_V1         N15486 0  AC 1
+SIN 0 5 50k 0 0 0
R_R2         0 N15493  10k TC=0,0 
R_R5         N15064 0  100 TC=0,0 
R_R4         N14962 0  1k TC=0,0 
V_V3         N14962 0  AC 1
+SIN 0 5 50k 0 0 0
C_C4         N15064 N14962  100n  TC=0,0 
L_L5         N14962 N15080  10uH  
R_R6         N15080 0  100 TC=0,0 
R_R7         0 N15497  1k TC=0,0 
R_R8         N15497 N15493  1k TC=0,0 
R_R9         N15493 N15486  1k TC=0,0 

**** RESUMING sim.cir ****
.END
